Version 4
SHEET 1 2944 968
WIRE -928 -544 -992 -544
WIRE -992 -528 -992 -544
WIRE -880 -528 -880 -608
WIRE -928 -512 -928 -544
WIRE -992 -432 -992 -448
WIRE -960 -432 -992 -432
WIRE -928 -432 -928 -464
WIRE -928 -432 -960 -432
WIRE -960 -400 -960 -432
WIRE -880 -368 -880 -448
WIRE -1536 -256 -1536 -288
WIRE -1520 -256 -1536 -256
WIRE -1456 -256 -1456 -288
WIRE -1456 -256 -1520 -256
WIRE -464 -240 -464 -304
WIRE -464 -240 -848 -240
WIRE -224 -240 -464 -240
WIRE -128 -240 -224 -240
WIRE -32 -240 -128 -240
WIRE -464 -224 -464 -240
WIRE -1520 -192 -1520 -256
WIRE -1472 -192 -1520 -192
WIRE -1344 -192 -1344 -256
WIRE -1344 -192 -1392 -192
WIRE -1280 -192 -1344 -192
WIRE -1168 -192 -1216 -192
WIRE -1088 -192 -1088 -208
WIRE -1088 -192 -1168 -192
WIRE -1008 -192 -1088 -192
WIRE -976 -192 -1008 -192
WIRE -848 -192 -848 -240
WIRE -848 -192 -880 -192
WIRE -1792 -176 -1872 -176
WIRE -1664 -176 -1728 -176
WIRE -1008 -144 -1008 -192
WIRE -560 -144 -576 -144
WIRE -464 -144 -464 -160
WIRE -464 -144 -496 -144
WIRE -416 -144 -464 -144
WIRE -464 -128 -464 -144
WIRE -960 -112 -960 -144
WIRE -608 -112 -960 -112
WIRE -576 -112 -576 -144
WIRE -576 -112 -608 -112
WIRE -512 -112 -576 -112
WIRE -2112 -96 -2176 -96
WIRE -1872 -96 -1872 -176
WIRE -1872 -96 -2032 -96
WIRE -1792 -96 -1872 -96
WIRE -1664 -96 -1664 -176
WIRE -1664 -96 -1728 -96
WIRE -1520 -96 -1520 -192
WIRE -1520 -96 -1664 -96
WIRE -2176 -32 -2176 -96
WIRE -1872 -32 -1872 -96
WIRE -1792 -32 -1872 -32
WIRE -1632 -32 -1728 -32
WIRE -400 -32 -464 -32
WIRE -1520 -16 -1520 -96
WIRE -1168 0 -1168 -192
WIRE -1168 0 -1344 0
WIRE -1120 0 -1168 0
WIRE -1008 0 -1008 -64
WIRE -1008 0 -1056 0
WIRE -960 0 -960 -112
WIRE -960 0 -1008 0
WIRE -912 0 -960 0
WIRE -464 0 -464 -32
WIRE -464 0 -720 0
WIRE -224 0 -224 -240
WIRE -128 0 -128 -240
WIRE -32 0 -32 -240
WIRE -1792 32 -1840 32
WIRE -1664 32 -1664 -96
WIRE -1664 32 -1728 32
WIRE -608 32 -608 -112
WIRE -512 32 -608 32
WIRE -480 32 -512 32
WIRE -608 64 -608 32
WIRE -1344 80 -1344 0
WIRE -512 80 -512 32
WIRE -2176 96 -2176 48
WIRE -2112 96 -2176 96
WIRE -1840 96 -1840 32
WIRE -1840 96 -2032 96
WIRE -1792 96 -1840 96
WIRE -1632 96 -1632 -32
WIRE -1632 96 -1728 96
WIRE -1520 96 -1520 48
WIRE -1520 96 -1632 96
WIRE -720 96 -720 0
WIRE -1008 176 -1008 0
WIRE -608 176 -608 144
WIRE -512 176 -512 144
WIRE -512 176 -608 176
WIRE -480 176 -512 176
WIRE -1344 224 -1344 160
WIRE -1280 224 -1344 224
WIRE -1152 224 -1200 224
WIRE -1072 224 -1152 224
WIRE -608 224 -608 176
WIRE -304 224 -608 224
WIRE -304 240 -304 224
WIRE -2112 272 -2176 272
WIRE -1872 272 -2032 272
WIRE -1792 272 -1872 272
WIRE -1664 272 -1728 272
WIRE -1520 272 -1520 96
WIRE -1520 272 -1664 272
WIRE -720 288 -720 176
WIRE -720 288 -800 288
WIRE -688 288 -720 288
WIRE -608 288 -624 288
WIRE -400 288 -608 288
WIRE -368 288 -400 288
WIRE -1152 304 -1152 224
WIRE -1008 304 -1008 272
WIRE -960 304 -1008 304
WIRE -848 304 -848 -192
WIRE -848 304 -896 304
WIRE -1344 320 -1344 224
WIRE -2176 336 -2176 272
WIRE -1872 336 -1872 272
WIRE -1792 336 -1872 336
WIRE -1632 336 -1728 336
WIRE -1008 336 -1008 304
WIRE -800 336 -800 288
WIRE -608 336 -608 288
WIRE -400 336 -400 288
WIRE -1520 352 -1520 272
WIRE -720 352 -720 288
WIRE -304 352 -304 336
WIRE -1792 400 -1840 400
WIRE -1664 400 -1664 272
WIRE -1664 400 -1728 400
WIRE -2176 464 -2176 416
WIRE -2112 464 -2176 464
WIRE -1840 464 -1840 400
WIRE -1840 464 -2032 464
WIRE -1792 464 -1840 464
WIRE -1632 464 -1632 336
WIRE -1632 464 -1728 464
WIRE -1520 464 -1520 416
WIRE -1520 464 -1632 464
WIRE -1344 464 -1344 400
WIRE -1344 464 -1520 464
WIRE -1152 464 -1152 368
WIRE -1152 464 -1344 464
WIRE -1008 464 -1008 416
WIRE -1008 464 -1152 464
WIRE -800 464 -800 416
WIRE -800 464 -1008 464
WIRE -720 464 -720 416
WIRE -720 464 -800 464
WIRE -608 464 -608 400
WIRE -608 464 -720 464
WIRE -400 464 -400 400
WIRE -400 464 -608 464
WIRE -304 464 -304 432
WIRE -304 464 -400 464
WIRE -224 464 -224 64
WIRE -224 464 -304 464
WIRE -128 464 -128 80
WIRE -128 464 -224 464
WIRE -32 464 -32 80
WIRE -32 464 -128 464
WIRE -1520 496 -1520 464
FLAG -1520 496 0
FLAG -880 -608 T
FLAG -880 -368 S
FLAG -1344 -256 T
FLAG -464 -304 S
FLAG -960 -400 0
FLAG -912 0 Vg
FLAG -1088 -208 Vs1
FLAG -416 -144 Vs2
FLAG -480 32 RCA
FLAG -480 176 RCB
FLAG -400 -32 AAA
SYMBOL voltage -2176 -48 R0
WINDOW 123 0 0 Left 0
WINDOW 39 0 0 Left 0
SYMATTR InstName V2
SYMATTR Value SINE(0 37.7736 50 0 0 0 2000)
SYMBOL schottky -1792 -80 R270
WINDOW 0 32 32 VTop 2
WINDOW 3 0 32 VBottom 2
SYMATTR InstName D4
SYMATTR Value RB238NS150
SYMATTR Description Diode
SYMATTR Type diode
SYMBOL schottky -1728 80 R90
WINDOW 0 0 32 VBottom 2
WINDOW 3 32 32 VTop 2
SYMATTR InstName D6
SYMATTR Value RB238NS150
SYMATTR Description Diode
SYMATTR Type diode
SYMBOL schottky -1792 48 R270
WINDOW 0 32 32 VTop 2
WINDOW 3 0 32 VBottom 2
SYMATTR InstName D7
SYMATTR Value RB238NS150
SYMATTR Description Diode
SYMATTR Type diode
SYMBOL schottky -1728 -48 R90
WINDOW 0 0 32 VBottom 2
WINDOW 3 32 32 VTop 2
SYMATTR InstName D8
SYMATTR Value RB238NS150
SYMATTR Description Diode
SYMATTR Type diode
SYMBOL res -2016 -112 R90
WINDOW 0 0 56 VBottom 2
WINDOW 3 32 56 VTop 2
SYMATTR InstName R4
SYMATTR Value 0.0855
SYMBOL schottky -1792 288 R270
WINDOW 0 32 32 VTop 2
WINDOW 3 0 32 VBottom 2
SYMATTR InstName D9
SYMATTR Value RB238NS150
SYMATTR Description Diode
SYMATTR Type diode
SYMBOL schottky -1728 448 R90
WINDOW 0 0 32 VBottom 2
WINDOW 3 32 32 VTop 2
SYMATTR InstName D10
SYMATTR Value RB238NS150
SYMATTR Description Diode
SYMATTR Type diode
SYMBOL schottky -1792 416 R270
WINDOW 0 32 32 VTop 2
WINDOW 3 0 32 VBottom 2
SYMATTR InstName D11
SYMATTR Value RB238NS150
SYMATTR Description Diode
SYMATTR Type diode
SYMBOL schottky -1728 320 R90
WINDOW 0 0 32 VBottom 2
WINDOW 3 32 32 VTop 2
SYMATTR InstName D12
SYMATTR Value RB238NS150
SYMATTR Description Diode
SYMATTR Type diode
SYMBOL res -2016 80 R90
WINDOW 0 0 56 VBottom 2
WINDOW 3 32 56 VTop 2
SYMATTR InstName R5
SYMATTR Value 0.0855
SYMBOL voltage -2176 320 R0
WINDOW 123 0 0 Left 0
WINDOW 39 0 0 Left 0
SYMATTR InstName V3
SYMATTR Value SINE(0 37.7736 50 0 0 0 2000)
SYMBOL res -2016 256 R90
WINDOW 0 0 56 VBottom 2
WINDOW 3 32 56 VTop 2
SYMATTR InstName R6
SYMATTR Value 0.0855
SYMBOL res -2016 448 R90
WINDOW 0 0 56 VBottom 2
WINDOW 3 32 56 VTop 2
SYMATTR InstName R7
SYMATTR Value 0.0855
SYMBOL cap -1728 -192 R90
WINDOW 0 0 32 VBottom 2
WINDOW 3 32 32 VTop 2
SYMATTR InstName C6
SYMATTR Value 100nF
SYMATTR SpiceLine V=60
SYMBOL cap -1536 352 R0
SYMATTR InstName C2
SYMATTR Value 13200µF
SYMATTR SpiceLine V=50 Rser=0.03
SYMBOL cap -1536 -16 R0
SYMATTR InstName C3
SYMATTR Value 13200µF
SYMATTR SpiceLine V=50 Rser=0.03
SYMBOL pmos -880 -144 M270
SYMATTR InstName M1
SYMATTR Value irf9540npbf
SYMATTR Prefix X
SYMBOL cap -240 0 R0
WINDOW 0 -1 -22 VRight 2
WINDOW 3 -1 46 VRight 2
SYMATTR InstName C10
SYMATTR Value 16200µF
SYMATTR SpiceLine V=80 Rser=0.016
SYMBOL res -1360 304 R0
SYMATTR InstName R8
SYMATTR Value 2.2e3
SYMBOL pmos -512 -32 M180
SYMATTR InstName M4
SYMATTR Value BSP230
SYMATTR Prefix X
SYMBOL zener -1056 -16 R90
WINDOW 0 -4 32 VBottom 2
WINDOW 3 36 32 VTop 2
SYMATTR InstName D13
SYMATTR Value BZX84C15L
SYMBOL res -1328 176 R180
WINDOW 0 36 76 Left 2
WINDOW 3 36 40 Left 2
SYMATTR InstName R11
SYMATTR Value 100e3
SYMBOL cap -1168 304 R0
WINDOW 0 25 55 Left 2
WINDOW 3 25 5 Left 2
SYMATTR InstName C11
SYMATTR Value 220e-9
SYMBOL npn -1072 176 R0
SYMATTR InstName Q2
SYMATTR Value KST42
SYMBOL res -992 432 R180
WINDOW 0 36 76 Left 2
WINDOW 3 36 40 Left 2
SYMATTR InstName R15
SYMATTR Value 1e3
SYMBOL res -992 -48 R180
WINDOW 0 29 8 Left 2
WINDOW 3 30 47 Left 2
SYMATTR InstName R17
SYMATTR Value 100e3
SYMBOL cap -896 288 R90
WINDOW 0 0 32 VBottom 2
WINDOW 3 32 32 VTop 2
SYMATTR InstName C12
SYMATTR Value 10e-6
SYMBOL res -1440 -304 R90
WINDOW 0 0 56 VBottom 2
WINDOW 3 32 54 VTop 2
SYMATTR InstName R20
SYMATTR Value R=if((time<0.1)|((time > 2)&(time<3.5)),1e9,1e-6)
SYMBOL diode -1280 -176 R270
WINDOW 0 -32 32 VTop 2
WINDOW 3 63 34 VBottom 2
SYMATTR InstName D1
SYMATTR Value UF5406
SYMBOL sw -880 -432 M180
WINDOW 3 12 101 Left 2
SYMATTR Value Relay
SYMATTR InstName S1
SYMBOL bv -992 -544 R0
WINDOW 0 -22 -13 VRight 2
WINDOW 3 -54 -32 VRight 2
SYMATTR InstName B1
SYMATTR Value V=V(RCA,RCB)
SYMBOL res -1184 208 R90
WINDOW 0 0 56 VBottom 2
WINDOW 3 32 56 VTop 2
SYMATTR InstName R2
SYMATTR Value 100e3
SYMBOL zener -560 -128 R270
WINDOW 0 -14 4 VTop 2
WINDOW 3 60 27 VBottom 2
SYMATTR InstName D2
SYMATTR Value BZX84C15L
SYMBOL diode -480 -224 R0
WINDOW 3 40 36 Left 2
SYMATTR Value BAS16H
SYMATTR InstName D5
SYMBOL res -1376 -208 R90
WINDOW 0 0 56 VBottom 2
WINDOW 3 32 54 VTop 2
SYMATTR InstName R1
SYMATTR Value R=if(time<0.1,1e9,1e-6)
SYMBOL current -128 0 R0
WINDOW 123 0 0 Left 0
WINDOW 39 0 0 Left 0
WINDOW 3 24 80 Invisible 2
SYMATTR Value PWL(0 0 1.5 0 5 7)
SYMATTR InstName I1
SYMBOL diode -496 144 R180
WINDOW 0 -32 3 Left 2
WINDOW 3 -72 60 Left 2
SYMATTR InstName D3
SYMATTR Value 1N4001
SYMBOL ind -624 48 R0
SYMATTR InstName L2
SYMATTR Value 1e-6
SYMATTR SpiceLine Rser=5760
SYMBOL npn -368 240 R0
SYMATTR InstName Q3
SYMATTR Value KST42
SYMBOL res -320 336 R0
SYMATTR InstName R3
SYMATTR Value 96
SYMBOL cap -416 336 R0
WINDOW 0 25 11 Left 2
WINDOW 3 25 51 Left 2
SYMATTR InstName C1
SYMATTR Value 100e-9
SYMBOL zener -624 272 R90
WINDOW 0 56 38 VBottom 2
WINDOW 3 -34 20 VTop 2
SYMATTR InstName D19
SYMATTR Value BZX84C15L
SYMBOL cap -704 352 M0
WINDOW 3 9 58 Left 2
SYMATTR Value 10e-6
SYMATTR InstName C7
SYMBOL res -736 80 R0
SYMATTR InstName R9
SYMATTR Value 100e3
SYMBOL res -48 -16 R0
SYMATTR InstName R10
SYMATTR Value 8.3e3
SYMBOL res -784 320 M0
SYMATTR InstName R12
SYMATTR Value 470e3
SYMBOL LED -624 336 R0
SYMATTR InstName D21
SYMATTR Value REDLED
TEXT -2176 -184 Left 2 !.tran 5 startup
TEXT -2176 672 Left 2 !.model UF5406 d(is = 1.15563E-005 n = 3.45 rs = 0.0887337 eg = 1.11 xti = 3 cjo = 9.14327E-011 vj = 0.298558 m = 0.347605 fc = 0.5  tt = 1.57227E-007 bv = 660 ibv = 0.3 af = 1 kf = 0)
TEXT -2176 544 Left 2 !.inc Infineon-Spice-File-IRF9540NPBF-SM-v01_00-EN.spi
TEXT -2176 -152 Left 2 !.options cshunt=1e-15
TEXT -2176 704 Left 2 !.inc BAS16H.txt
TEXT -2176 576 Left 2 !.inc BSP230.prm
TEXT -2176 640 Left 2 !.model 1N4001 D(Is=14.11n N=1.984 Rs=33.89m Ikf=94.81 Xti=3 Eg=1.11 Cjo=25.89p M=.44 Vj=.3245 Fc=.5 Bv=75 Ibv=10u Tt=5.7u Iave=1 Vpk=50 mfg=GI type=silicon
TEXT -800 -488 Left 2 !.model Relay SW(Roff=1Meg Ron=1e-3 Vt=34V Vh=2)
TEXT -2176 608 Left 2 !.lib KST42.lib
TEXT -2176 736 Left 2 !.inc NZX5V6C.prm
TEXT -2176 768 Left 2 !.inc NZX3V9C.prm
TEXT -2176 800 Left 2 !.MODEL REDLED D (IS=93.2P RS=42M N=3.73 BV=4 IBV=10U CJO=2.97P VJ=.75 M=.333 TT=4.32U)
