Version 4
SHEET 1 2944 968
WIRE -1792 -176 -1872 -176
WIRE -1664 -176 -1728 -176
WIRE -160 -128 -288 -128
WIRE 48 -128 -160 -128
WIRE 112 -128 48 -128
WIRE 272 -128 192 -128
WIRE 512 -128 272 -128
WIRE -2112 -96 -2176 -96
WIRE -1872 -96 -1872 -176
WIRE -1872 -96 -2032 -96
WIRE -1792 -96 -1872 -96
WIRE -1664 -96 -1664 -176
WIRE -1664 -96 -1728 -96
WIRE -1520 -96 -1664 -96
WIRE -1104 -96 -1520 -96
WIRE 48 -64 48 -128
WIRE 112 -64 48 -64
WIRE 112 -48 112 -64
WIRE 272 -48 272 -128
WIRE -2176 -32 -2176 -96
WIRE -1872 -32 -1872 -96
WIRE -1792 -32 -1872 -32
WIRE -1632 -32 -1728 -32
WIRE 48 -32 48 -64
WIRE -1520 -16 -1520 -96
WIRE -1792 32 -1840 32
WIRE -1664 32 -1664 -96
WIRE -1664 32 -1728 32
WIRE -1104 48 -1104 -96
WIRE -976 48 -1104 48
WIRE -160 48 -160 -128
WIRE 48 64 48 32
WIRE 112 64 112 32
WIRE 112 64 48 64
WIRE 512 80 512 -128
WIRE -2176 96 -2176 48
WIRE -2112 96 -2176 96
WIRE -1840 96 -1840 32
WIRE -1840 96 -2032 96
WIRE -1792 96 -1840 96
WIRE -1632 96 -1632 -32
WIRE -1632 96 -1728 96
WIRE -1520 96 -1520 48
WIRE -1520 96 -1632 96
WIRE -1424 96 -1520 96
WIRE 272 96 272 16
WIRE 272 96 176 96
WIRE 176 160 176 96
WIRE -160 176 -160 128
WIRE -80 176 -160 176
WIRE 48 176 48 64
WIRE 48 176 -16 176
WIRE 96 176 48 176
WIRE -2112 192 -2176 192
WIRE -1872 192 -2032 192
WIRE -1792 192 -1872 192
WIRE -1664 192 -1728 192
WIRE -1520 192 -1664 192
WIRE -1424 192 -1424 96
WIRE -1424 192 -1520 192
WIRE -160 240 -160 176
WIRE 48 240 48 176
WIRE 96 240 96 176
WIRE 128 240 96 240
WIRE -2176 256 -2176 192
WIRE -1872 256 -1872 192
WIRE -1792 256 -1872 256
WIRE -1632 256 -1728 256
WIRE -1520 272 -1520 192
WIRE -1792 320 -1840 320
WIRE -1664 320 -1664 192
WIRE -1664 320 -1728 320
WIRE -160 368 -160 304
WIRE -160 368 -288 368
WIRE 48 368 48 304
WIRE 48 368 -160 368
WIRE 176 368 176 256
WIRE 176 368 48 368
WIRE 512 368 512 160
WIRE 512 368 176 368
WIRE -2176 384 -2176 336
WIRE -2112 384 -2176 384
WIRE -1840 384 -1840 320
WIRE -1840 384 -2032 384
WIRE -1792 384 -1840 384
WIRE -1632 384 -1632 256
WIRE -1632 384 -1728 384
WIRE -1520 384 -1520 336
WIRE -1520 384 -1632 384
WIRE -1104 384 -1104 240
WIRE -1104 384 -1520 384
WIRE -288 400 -288 368
WIRE -1520 416 -1520 384
FLAG -288 400 0
FLAG -1520 416 0
FLAG -976 48 VMax
FLAG -288 -128 VMax
SYMBOL res 96 -64 R0
SYMATTR InstName R2
SYMATTR Value 470e3
SYMBOL cap 64 304 R180
WINDOW 0 24 56 Left 2
WINDOW 3 24 8 Left 2
SYMATTR InstName C2
SYMATTR Value 330e-6
SYMATTR SpiceLine IC=0
SYMBOL nmos 128 160 R0
WINDOW 0 63 28 Left 2
WINDOW 3 62 0 Left 2
SYMATTR InstName M1
SYMATTR Value STP16NF06
SYMATTR Prefix X
SYMBOL diode 64 32 R180
WINDOW 0 24 64 Left 2
WINDOW 3 34 29 Left 2
SYMATTR InstName D2
SYMATTR Value uf5406
SYMBOL res -176 32 R0
SYMATTR InstName R1
SYMATTR Value 2.2e3
SYMBOL zener -144 304 R180
WINDOW 0 24 64 Left 2
WINDOW 3 24 0 Left 2
SYMATTR InstName D3
SYMATTR Value NZX3V9C
SYMATTR Prefix X
SYMBOL zener -80 192 R270
WINDOW 0 36 32 VTop 2
WINDOW 3 -4 32 VBottom 2
SYMATTR InstName D5
SYMATTR Value NZX5V6C
SYMATTR Prefix X
SYMBOL voltage -2176 -48 R0
WINDOW 123 0 0 Left 0
WINDOW 39 0 0 Left 0
SYMATTR InstName V2
SYMATTR Value SINE(0 37.7736 50 0 0 0 400)
SYMBOL schottky -1792 -80 R270
WINDOW 0 32 32 VTop 2
WINDOW 3 0 32 VBottom 2
SYMATTR InstName D4
SYMATTR Value RB238NS150
SYMATTR Description Diode
SYMATTR Type diode
SYMBOL schottky -1728 80 R90
WINDOW 0 0 32 VBottom 2
WINDOW 3 32 32 VTop 2
SYMATTR InstName D6
SYMATTR Value RB238NS150
SYMATTR Description Diode
SYMATTR Type diode
SYMBOL schottky -1792 48 R270
WINDOW 0 32 32 VTop 2
WINDOW 3 0 32 VBottom 2
SYMATTR InstName D7
SYMATTR Value RB238NS150
SYMATTR Description Diode
SYMATTR Type diode
SYMBOL schottky -1728 -48 R90
WINDOW 0 0 32 VBottom 2
WINDOW 3 32 32 VTop 2
SYMATTR InstName D8
SYMATTR Value RB238NS150
SYMATTR Description Diode
SYMATTR Type diode
SYMBOL res -2016 -112 R90
WINDOW 0 0 56 VBottom 2
WINDOW 3 32 56 VTop 2
SYMATTR InstName R4
SYMATTR Value 0.0855
SYMBOL schottky -1792 208 R270
WINDOW 0 32 32 VTop 2
WINDOW 3 0 32 VBottom 2
SYMATTR InstName D9
SYMATTR Value RB238NS150
SYMATTR Description Diode
SYMATTR Type diode
SYMBOL schottky -1728 368 R90
WINDOW 0 0 32 VBottom 2
WINDOW 3 32 32 VTop 2
SYMATTR InstName D10
SYMATTR Value RB238NS150
SYMATTR Description Diode
SYMATTR Type diode
SYMBOL cap 256 -48 R0
SYMATTR InstName C3
SYMATTR Value 16200µF
SYMATTR SpiceLine V=80
SYMATTR SpiceLine2 IC=60
SYMBOL schottky -1792 336 R270
WINDOW 0 32 32 VTop 2
WINDOW 3 0 32 VBottom 2
SYMATTR InstName D11
SYMATTR Value RB238NS150
SYMATTR Description Diode
SYMATTR Type diode
SYMBOL schottky -1728 240 R90
WINDOW 0 0 32 VBottom 2
WINDOW 3 32 32 VTop 2
SYMATTR InstName D12
SYMATTR Value RB238NS150
SYMATTR Description Diode
SYMATTR Type diode
SYMBOL res -2016 80 R90
WINDOW 0 0 56 VBottom 2
WINDOW 3 32 56 VTop 2
SYMATTR InstName R5
SYMATTR Value 0.0855
SYMBOL voltage -2176 240 R0
WINDOW 123 0 0 Left 0
WINDOW 39 0 0 Left 0
SYMATTR InstName V3
SYMATTR Value SINE(0 37.7736 50 0 0 0 400)
SYMBOL res -2016 176 R90
WINDOW 0 0 56 VBottom 2
WINDOW 3 32 56 VTop 2
SYMATTR InstName R6
SYMATTR Value 0.0855
SYMBOL res -2016 368 R90
WINDOW 0 0 56 VBottom 2
WINDOW 3 32 56 VTop 2
SYMATTR InstName R7
SYMATTR Value 0.0855
SYMBOL cap -1536 272 R0
SYMATTR InstName C4
SYMATTR Value 13200µF
SYMATTR SpiceLine V=50
SYMATTR SpiceLine2 IC=30
SYMBOL cap -1536 -16 R0
SYMATTR InstName C5
SYMATTR Value 13200µF
SYMATTR SpiceLine V=50
SYMATTR SpiceLine2 IC=30
SYMBOL cap -1728 -192 R90
WINDOW 0 0 32 VBottom 2
WINDOW 3 32 32 VTop 2
SYMATTR InstName C6
SYMATTR Value 100nF
SYMATTR SpiceLine V=60
SYMBOL res 496 64 R0
SYMATTR InstName R3
SYMATTR Value 750
SYMBOL voltage 96 -128 R270
WINDOW 0 32 56 VTop 2
WINDOW 3 -32 56 VBottom 2
WINDOW 123 0 0 Left 0
WINDOW 39 0 0 Left 0
SYMATTR InstName V1
SYMATTR Value 0
TEXT -744 576 Left 2 !.lib stp16nf06.lib
TEXT -744 544 Left 2 !.tran 60
TEXT -744 608 Left 2 !.model uf5406 d(is = 1.15563E-005 n = 3.45 rs = 0.0887337 eg = 1.11 xti = 3 cjo = 9.14327E-011 vj = 0.298558 m = 0.347605 fc = 0.5  tt = 1.57227E-007 bv = 660 ibv = 0.3 af = 1 kf = 0)
TEXT -744 640 Left 2 !.lib ntc_20130313.lib
TEXT -744 704 Left 2 !.inc NZX5V6C.prm
TEXT -744 672 Left 2 !.inc NZX3V9C.prm
