Version 4
SHEET 1 2944 968
WIRE -1456 -192 -1520 -192
WIRE -1344 -192 -1376 -192
WIRE -1232 -192 -1344 -192
WIRE -1120 -192 -1232 -192
WIRE -1008 -192 -1120 -192
WIRE -976 -192 -1008 -192
WIRE -688 -192 -880 -192
WIRE -496 -192 -688 -192
WIRE -400 -192 -496 -192
WIRE -272 -192 -400 -192
WIRE -1792 -176 -1872 -176
WIRE -1664 -176 -1728 -176
WIRE -1232 -160 -1232 -192
WIRE -1008 -144 -1008 -192
WIRE -1120 -112 -1120 -192
WIRE -688 -112 -688 -128
WIRE -2112 -96 -2176 -96
WIRE -1872 -96 -1872 -176
WIRE -1872 -96 -2032 -96
WIRE -1792 -96 -1872 -96
WIRE -1664 -96 -1664 -176
WIRE -1664 -96 -1728 -96
WIRE -1520 -96 -1520 -192
WIRE -1520 -96 -1664 -96
WIRE -1232 -80 -1232 -96
WIRE -800 -48 -832 -48
WIRE -688 -48 -736 -48
WIRE -2176 -32 -2176 -96
WIRE -1872 -32 -1872 -96
WIRE -1792 -32 -1872 -32
WIRE -1632 -32 -1728 -32
WIRE -1520 -16 -1520 -96
WIRE -688 -16 -688 -48
WIRE -496 -16 -496 -192
WIRE -1232 0 -1232 -16
WIRE -1120 0 -1120 -48
WIRE -1120 0 -1232 0
WIRE -1008 0 -1008 -64
WIRE -1008 0 -1120 0
WIRE -960 0 -960 -144
WIRE -960 0 -1008 0
WIRE -832 0 -832 -48
WIRE -832 0 -960 0
WIRE -736 0 -832 0
WIRE -1792 32 -1840 32
WIRE -1664 32 -1664 -96
WIRE -1664 32 -1728 32
WIRE -1344 64 -1344 -192
WIRE -272 64 -272 -192
WIRE -592 80 -688 80
WIRE -400 80 -400 -192
WIRE -2176 96 -2176 48
WIRE -2112 96 -2176 96
WIRE -1840 96 -1840 32
WIRE -1840 96 -2032 96
WIRE -1792 96 -1840 96
WIRE -1632 96 -1632 -32
WIRE -1632 96 -1728 96
WIRE -1520 96 -1520 48
WIRE -1520 96 -1632 96
WIRE -688 96 -688 80
WIRE -592 112 -592 80
WIRE -1008 144 -1008 0
WIRE -2112 192 -2176 192
WIRE -1872 192 -2032 192
WIRE -1792 192 -1872 192
WIRE -1664 192 -1728 192
WIRE -1520 192 -1520 96
WIRE -1520 192 -1664 192
WIRE -1344 192 -1344 144
WIRE -1312 192 -1344 192
WIRE -1200 192 -1232 192
WIRE -1072 192 -1200 192
WIRE -880 192 -1072 192
WIRE -688 192 -688 176
WIRE -688 192 -736 192
WIRE -592 192 -592 176
WIRE -592 192 -688 192
WIRE -688 208 -688 192
WIRE -1344 240 -1344 192
WIRE -2176 256 -2176 192
WIRE -1872 256 -1872 192
WIRE -1792 256 -1872 256
WIRE -1632 256 -1728 256
WIRE -1200 256 -1200 192
WIRE -1520 272 -1520 192
WIRE -1008 272 -1008 240
WIRE -496 272 -496 48
WIRE -496 272 -1008 272
WIRE -1008 288 -1008 272
WIRE -1792 320 -1840 320
WIRE -1664 320 -1664 192
WIRE -1664 320 -1728 320
WIRE -2176 384 -2176 336
WIRE -2112 384 -2176 384
WIRE -1840 384 -1840 320
WIRE -1840 384 -2032 384
WIRE -1792 384 -1840 384
WIRE -1632 384 -1632 256
WIRE -1632 384 -1728 384
WIRE -1520 384 -1520 336
WIRE -1520 384 -1632 384
WIRE -1344 384 -1344 320
WIRE -1344 384 -1520 384
WIRE -1200 384 -1200 320
WIRE -1200 384 -1344 384
WIRE -1008 384 -1008 368
WIRE -1008 384 -1200 384
WIRE -688 384 -688 288
WIRE -688 384 -1008 384
WIRE -400 384 -400 144
WIRE -400 384 -688 384
WIRE -272 384 -272 144
WIRE -272 384 -400 384
WIRE -1520 416 -1520 384
FLAG -1520 416 0
SYMBOL voltage -2176 -48 R0
WINDOW 123 0 0 Left 0
WINDOW 39 0 0 Left 0
SYMATTR InstName V2
SYMATTR Value SINE(0 37.7736 50 0 0 0 2000)
SYMBOL schottky -1792 -80 R270
WINDOW 0 32 32 VTop 2
WINDOW 3 0 32 VBottom 2
SYMATTR InstName D4
SYMATTR Value RB238NS150
SYMATTR Description Diode
SYMATTR Type diode
SYMBOL schottky -1728 80 R90
WINDOW 0 0 32 VBottom 2
WINDOW 3 32 32 VTop 2
SYMATTR InstName D6
SYMATTR Value RB238NS150
SYMATTR Description Diode
SYMATTR Type diode
SYMBOL schottky -1792 48 R270
WINDOW 0 32 32 VTop 2
WINDOW 3 0 32 VBottom 2
SYMATTR InstName D7
SYMATTR Value RB238NS150
SYMATTR Description Diode
SYMATTR Type diode
SYMBOL schottky -1728 -48 R90
WINDOW 0 0 32 VBottom 2
WINDOW 3 32 32 VTop 2
SYMATTR InstName D8
SYMATTR Value RB238NS150
SYMATTR Description Diode
SYMATTR Type diode
SYMBOL res -2016 -112 R90
WINDOW 0 0 56 VBottom 2
WINDOW 3 32 56 VTop 2
SYMATTR InstName R4
SYMATTR Value 0.0855
SYMBOL schottky -1792 208 R270
WINDOW 0 32 32 VTop 2
WINDOW 3 0 32 VBottom 2
SYMATTR InstName D9
SYMATTR Value RB238NS150
SYMATTR Description Diode
SYMATTR Type diode
SYMBOL schottky -1728 368 R90
WINDOW 0 0 32 VBottom 2
WINDOW 3 32 32 VTop 2
SYMATTR InstName D10
SYMATTR Value RB238NS150
SYMATTR Description Diode
SYMATTR Type diode
SYMBOL schottky -1792 336 R270
WINDOW 0 32 32 VTop 2
WINDOW 3 0 32 VBottom 2
SYMATTR InstName D11
SYMATTR Value RB238NS150
SYMATTR Description Diode
SYMATTR Type diode
SYMBOL schottky -1728 240 R90
WINDOW 0 0 32 VBottom 2
WINDOW 3 32 32 VTop 2
SYMATTR InstName D12
SYMATTR Value RB238NS150
SYMATTR Description Diode
SYMATTR Type diode
SYMBOL res -2016 80 R90
WINDOW 0 0 56 VBottom 2
WINDOW 3 32 56 VTop 2
SYMATTR InstName R5
SYMATTR Value 0.0855
SYMBOL voltage -2176 240 R0
WINDOW 123 0 0 Left 0
WINDOW 39 0 0 Left 0
SYMATTR InstName V3
SYMATTR Value SINE(0 37.7736 50 0 0 0 2000)
SYMBOL res -2016 176 R90
WINDOW 0 0 56 VBottom 2
WINDOW 3 32 56 VTop 2
SYMATTR InstName R6
SYMATTR Value 0.0855
SYMBOL res -2016 368 R90
WINDOW 0 0 56 VBottom 2
WINDOW 3 32 56 VTop 2
SYMATTR InstName R7
SYMATTR Value 0.0855
SYMBOL cap -1536 272 R0
SYMATTR InstName C4
SYMATTR Value 13200µF
SYMATTR SpiceLine V=50
SYMBOL cap -1536 -16 R0
SYMATTR InstName C5
SYMATTR Value 13200µF
SYMATTR SpiceLine V=50
SYMBOL cap -1728 -192 R90
WINDOW 0 0 32 VBottom 2
WINDOW 3 32 32 VTop 2
SYMATTR InstName C6
SYMATTR Value 100nF
SYMATTR SpiceLine V=60
SYMBOL voltage -1472 -192 R270
WINDOW 0 32 56 VTop 2
WINDOW 3 -32 56 VBottom 2
WINDOW 123 0 0 Left 0
WINDOW 39 0 0 Left 0
SYMATTR InstName V1
SYMATTR Value 0
SYMBOL pmos -880 -144 M270
SYMATTR InstName M3
SYMATTR Value irf9540npbf
SYMATTR Prefix X
SYMBOL cap -416 80 R0
SYMATTR InstName C1
SYMATTR Value 16200µF
SYMATTR SpiceLine V=80
SYMBOL res -288 48 R0
SYMATTR InstName R1
SYMATTR Value 8.5e3
SYMBOL res -1360 224 R0
SYMATTR InstName R2
SYMATTR Value 2.2e3
SYMBOL pmos -736 80 M180
SYMATTR InstName M2
SYMATTR Value BSP230
SYMATTR Prefix X
SYMBOL diode -1248 -80 R0
SYMATTR InstName D2
SYMATTR Value BAS16H
SYMBOL zener -672 -128 R180
WINDOW 0 24 64 Left 2
WINDOW 3 24 0 Left 2
SYMATTR InstName D15
SYMATTR Value NZX5V6C
SYMATTR Prefix X
SYMBOL zener -1104 -48 R180
WINDOW 0 24 64 Left 2
WINDOW 3 -47 99 Left 2
SYMATTR InstName D16
SYMATTR Value BZX84C15L
SYMBOL res -1360 48 R0
SYMATTR InstName R9
SYMATTR Value 100e3
SYMBOL res -1216 176 R90
WINDOW 0 0 56 VBottom 2
WINDOW 3 32 56 VTop 2
SYMATTR InstName R10
SYMATTR Value 100e3
SYMBOL cap -1216 256 R0
WINDOW 0 -22 12 Left 2
WINDOW 3 -22 60 Left 2
SYMATTR InstName C7
SYMATTR Value 220e-9
SYMBOL npn -1072 144 R0
SYMATTR InstName Q1
SYMATTR Value ZTX450
SYMBOL res -1024 272 R0
SYMATTR InstName R12
SYMATTR Value 1e3
SYMBOL res -992 -48 R180
WINDOW 0 29 8 Left 2
WINDOW 3 30 47 Left 2
SYMATTR InstName R14
SYMATTR Value 100e3
SYMBOL cap -512 -16 R0
SYMATTR InstName C8
SYMATTR Value 10e-6
SYMBOL cap -1216 -96 R180
WINDOW 0 24 56 Left 2
WINDOW 3 24 8 Left 2
SYMATTR InstName C9
SYMATTR Value 680e-9
SYMBOL res -704 192 R0
SYMATTR InstName R16
SYMATTR Value 2200
SYMBOL diode -800 -32 R270
WINDOW 0 32 32 VTop 2
WINDOW 3 0 32 VBottom 2
SYMATTR InstName D3
SYMATTR Value BAS16H
SYMBOL diode -704 -112 R0
SYMATTR InstName D1
SYMATTR Value BAS16H
SYMBOL res -720 176 R90
WINDOW 0 0 56 VBottom 2
WINDOW 3 32 56 VTop 2
SYMATTR InstName R19
SYMATTR Value 100e3
SYMBOL ind -704 80 R0
SYMATTR InstName L3
SYMATTR Value 1e-6
SYMATTR SpiceLine Rser=1.6e3
SYMBOL diode -576 176 R180
WINDOW 0 24 64 Left 2
WINDOW 3 24 0 Left 2
SYMATTR InstName D17
SYMATTR Value 1N4001
SYMBOL diode -816 176 R90
WINDOW 0 0 32 VBottom 2
WINDOW 3 32 32 VTop 2
SYMATTR InstName D18
SYMATTR Value BAS16H
TEXT -2176 -184 Left 2 !.tran 1 startup
TEXT -2176 448 Left 2 !.model uf5406 d(is = 1.15563E-005 n = 3.45 rs = 0.0887337 eg = 1.11 xti = 3 cjo = 9.14327E-011 vj = 0.298558 m = 0.347605 fc = 0.5  tt = 1.57227E-007 bv = 660 ibv = 0.3 af = 1 kf = 0)
TEXT -2176 544 Left 2 !.inc NZX5V6C.prm
TEXT -2176 512 Left 2 !.inc NZX3V9C.prm
TEXT -2176 480 Left 2 !.inc Infineon-Spice-File-IRF9540NPBF-SM-v01_00-EN.spi
TEXT -2176 -152 Left 2 !.options cshunt=1e-15
TEXT -2176 576 Left 2 !.MODEL ZTX450 NPN IS =3.941445E-14 BF =175 VAF=109.45 NF =1 IKF=.8 ISE=7.4025E-15 NE =1.3 BR =20.5 VAR=14.25 NR =.974 IKR=.1 ISC=3.157E-13 NC =1.2 RB =1.1 RE =.1259 RC =.0539 CJE=63E-12 TF =.75E-9 CJC=15.8E-12 TR =85E-9 VJC=.505 MJC=.39
TEXT -2176 608 Left 2 !.inc BAS16H.txt
TEXT -2176 640 Left 2 !.inc BSP230.prm
TEXT -2176 672 Left 2 !.model 1N4001 D(Is=14.11n N=1.984 Rs=33.89m Ikf=94.81 Xti=3 Eg=1.11 Cjo=25.89p M=.44 Vj=.3245 Fc=.5 Bv=75 Ibv=10u Tt=5.7u Iave=1 Vpk=50 mfg=GI type=silicon
